opendss_networks/LV10_223bus/lines.dss
new line.L_2 lineCode=ugsc_16cu_xlpe/nyl/pvc_ug_4w_bundled bus1=B1228 bus2=B2556 length=0.0176307489401 units=km phases=4
new line.L_22 lineCode=uglv_240al_xlpe/nyl/pvc_ug_4w_bundled bus1=B1749 bus2=B2503 length=0.0291105210308 units=km phases=4
new line.L_31 lineCode=ugsc_16cu_xlpe/nyl/pvc_ug_4w_bundled bus1=B2677 bus2=B1904 length=0.0294359466971 units=km phases=4
new line.L_103 lineCode=uglv_240al_xlpe/nyl/pvc_ug_4w_bundled bus1=B1068 bus2=B265 length=0.128960077267 units=km phases=4
new line.L_162 lineCode=ugsc_16cu_xlpe/nyl/pvc_ug_4w_bundled bus1=B1874 bus2=B791 length=0.0143302367223 units=km phases=4
new line.L_204 lineCode=uglv_240al_xlpe/nyl/pvc_ug_4w_bundled bus1=B3119 bus2=B1874 length=0.0321121513168 units=km phases=4
new line.L_205 lineCode=ugsc_16cu_xlpe/nyl/pvc_ug_4w_bundled bus1=B19 bus2=B849 length=0.0330431188573 units=km phases=4
new line.L_220 lineCode=ughv_400al_triplex_ug_4w_bundled bus1=B1862 bus2=B2612 length=0.000244629175463 units=km phases=4
new line.L_256 lineCode=ugsc_16cu_xlpe/nyl/pvc_ug_4w_bundled bus1=B1233 bus2=B1996 length=0.0129150865109 units=km phases=4
new line.L_316 lineCode=ugsc_16cu_xlpe/nyl/pvc_ug_4w_bundled bus1=B1948 bus2=B2203 length=0.00860909906709 units=km phases=4
new line.L_325 lineCode=ugsc_16cu_xlpe/nyl/pvc_ug_4w_bundled bus1=B646 bus2=B2231 length=0.00922254704541 units=km phases=4
new line.L_363 lineCode=uglv_240al_xlpe/nyl/pvc_ug_4w_bundled bus1=B13 bus2=B3280 length=0.0305821487233 units=km phases=4
new line.L_383 lineCode=ugsc_16cu_xlpe/nyl/pvc_ug_4w_bundled bus1=B1403 bus2=B670 length=0.00446486561269 units=km phases=4
new line.L_384 lineCode=ugsc_16cu_xlpe/nyl/pvc_ug_4w_bundled bus1=B2331 bus2=B1751 length=0.0100407979162 units=km phases=4
new line.L_436 lineCode=ughv_400al_triplex_ug_4w_bundled bus1=B1036 bus2=B531 length=6.69200662550e-05 units=km phases=4
new line.L_444 lineCode=uglv_240al_xlpe/nyl/pvc_ug_4w_bundled bus1=B1143 bus2=B1751 length=0.0363796939276 units=km phases=4
new line.L_453 lineCode=ugsc_16cu_xlpe/nyl/pvc_ug_4w_bundled bus1=B649 bus2=B2353 length=0.0450990014973 units=km phases=4
new line.L_457 lineCode=ugsc_16cu_xlpe/nyl/pvc_ug_4w_bundled bus1=B2988 bus2=B1153 length=0.00799113098309 units=km phases=4
new line.L_469 lineCode=ugsc_16cu_xlpe/nyl/pvc_ug_4w_bundled bus1=B2047 bus2=B299 length=0.00913548210503 units=km phases=4
new line.L_489 lineCode=ugsc_16cu_xlpe/nyl/pvc_ug_4w_bundled bus1=B1701 bus2=B265 length=0.0150279835044 units=km phases=4
new line.L_533 lineCode=uglv_240al_xlpe/nyl/pvc_ug_4w_bundled bus1=B1751 bus2=B952 length=0.0360402965825 units=km phases=4
new line.L_537 lineCode=uglv_240al_xlpe/nyl/pvc_ug_4w_bundled bus1=B265 bus2=B1417 length=0.0135650709100 units=km phases=4
new line.L_564 lineCode=ughv_400al_triplex_ug_4w_bundled bus1=B2039 bus2=B1081 length=0.000800000000000 units=km phases=4
new line.L_569 lineCode=uglv_240al_xlpe/nyl/pvc_ug_4w_bundled bus1=B952 bus2=B2312 length=0.0360309665283 units=km phases=4
new line.L_605 lineCode=ugsc_16cu_xlpe/nyl/pvc_ug_4w_bundled bus1=B3235 bus2=B1651 length=0.00863436916738 units=km phases=4
new line.L_606 lineCode=ugsc_16cu_xlpe/nyl/pvc_ug_4w_bundled bus1=B670 bus2=B2921 length=0.0162841376241 units=km phases=4
new line.L_625 lineCode=ugsc_16cu_xlpe/nyl/pvc_ug_4w_bundled bus1=B1314 bus2=B112 length=0.0250699995400 units=km phases=4
new line.L_643 lineCode=ugsc_16cu_xlpe/nyl/pvc_ug_4w_bundled bus1=B3226 bus2=B1153 length=0.0270324800246 units=km phases=4
new line.L_650 lineCode=ugsc_16cu_xlpe/nyl/pvc_ug_4w_bundled bus1=B1435 bus2=B1004 length=0.00988237870834 units=km phases=4
new line.L_659 lineCode=ugsc_16cu_xlpe/nyl/pvc_ug_4w_bundled bus1=B1751 bus2=B1397 length=0.00558389049265 units=km phases=4
new line.L_696 lineCode=ugsc_16cu_xlpe/nyl/pvc_ug_4w_bundled bus1=B3397 bus2=B649 length=0.0338777034197 units=km phases=4
new line.L_699 lineCode=ugsc_16cu_xlpe/nyl/pvc_ug_4w_bundled bus1=B1749 bus2=B968 length=0.0193862665396 units=km phases=4
new line.L_705 lineCode=ugsc_16cu_xlpe/nyl/pvc_ug_4w_bundled bus1=B1798 bus2=B1661 length=0.0507924725557 units=km phases=4
new line.L_706 lineCode=ugsc_16cu_xlpe/nyl/pvc_ug_4w_bundled bus1=B1909 bus2=B375 length=0.00557471104759 units=km phases=4
new line.L_711 lineCode=ugsc_16cu_xlpe/nyl/pvc_ug_4w_bundled bus1=B651 bus2=B670 length=0.00405522071329 units=km phases=4
new line.L_805 lineCode=ugsc_16cu_xlpe/nyl/pvc_ug_4w_bundled bus1=B1153 bus2=B1623 length=0.00559315110301 units=km phases=4
new line.L_819 lineCode=ughv_400al_triplex_ug_4w_bundled bus1=B871 bus2=B2511 length=6.69200662550e-05 units=km phases=4
new line.L_856 lineCode=ughv_400al_triplex_ug_4w_bundled bus1=B913 bus2=B3266 length=0.000800000000000 units=km phases=4
new line.L_869 lineCode=ugsc_16cu_xlpe/nyl/pvc_ug_4w_bundled bus1=B2713 bus2=B36 length=0.130389013076 units=km phases=4
new line.L_880 lineCode=ugsc_16cu_xlpe/nyl/pvc_ug_4w_bundled bus1=B13 bus2=B726 length=0.00559380747239 units=km phases=4
new line.L_933 lineCode=ugsc_16cu_xlpe/nyl/pvc_ug_4w_bundled bus1=B1951 bus2=B2562 length=0.00902960645981 units=km phases=4
new line.L_970 lineCode=ugsc_16cu_xlpe/nyl/pvc_ug_4w_bundled bus1=B2373 bus2=B1874 length=0.00864064671063 units=km phases=4
new line.L_997 lineCode=ugsc_16cu_xlpe/nyl/pvc_ug_4w_bundled bus1=B2763 bus2=B3280 length=0.00849036522684 units=km phases=4
new line.L_1019 lineCode=uglv_240al_xlpe/nyl/pvc_ug_4w_bundled bus1=B2847 bus2=B357 length=0.123402728258 units=km phases=4
new line.L_1067 lineCode=ugsc_16cu_xlpe/nyl/pvc_ug_4w_bundled bus1=B2611 bus2=B3211 length=0.0394035080135 units=km phases=4
new line.L_1112 lineCode=ugsc_16cu_xlpe/nyl/pvc_ug_4w_bundled bus1=B3126 bus2=B2871 length=0.00899988187901 units=km phases=4
new line.L_1115 lineCode=ugsc_16cu_xlpe/nyl/pvc_ug_4w_bundled bus1=B2634 bus2=B2677 length=0.00836962163233 units=km phases=4
new line.L_1163 lineCode=ughv_400al_triplex_ug_4w_bundled bus1=B1827 bus2=B909 length=0.000328459847754 units=km phases=4
new line.L_1193 lineCode=ugsc_16cu_xlpe/nyl/pvc_ug_4w_bundled bus1=B1081 bus2=B2938 length=0.00479821951616 units=km phases=4
new line.L_1206 lineCode=ugsc_16cu_xlpe/nyl/pvc_ug_4w_bundled bus1=B1874 bus2=B906 length=0.0141015217272 units=km phases=4
new line.L_1244 lineCode=ugsc_16cu_xlpe/nyl/pvc_ug_4w_bundled bus1=B2415 bus2=B1417 length=0.00862254342363 units=km phases=4
new line.L_1245 lineCode=ugsc_16cu_xlpe/nyl/pvc_ug_4w_bundled bus1=B2426 bus2=B1661 length=0.0156157381516 units=km phases=4
new line.L_1251 lineCode=ugsc_16cu_xlpe/nyl/pvc_ug_4w_bundled bus1=B1392 bus2=B619 length=0.0382500710341 units=km phases=4
new line.L_1274 lineCode=uglv_240al_xlpe/nyl/pvc_ug_4w_bundled bus1=B265 bus2=B13 length=0.0479874995643 units=km phases=4
new line.L_1300 lineCode=ugsc_16cu_xlpe/nyl/pvc_ug_4w_bundled bus1=B2312 bus2=B2964 length=0.00528577864075 units=km phases=4
new line.L_1333 lineCode=ugsc_16cu_xlpe/nyl/pvc_ug_4w_bundled bus1=B320 bus2=B1233 length=0.00750341389689 units=km phases=4
new line.L_1344 lineCode=uglv_240al_xlpe/nyl/pvc_ug_4w_bundled bus1=B2231 bus2=B2203 length=0.0313156278486 units=km phases=4
new line.L_1367 lineCode=ugsc_16cu_xlpe/nyl/pvc_ug_4w_bundled bus1=B1440 bus2=B968 length=0.0128971712957 units=km phases=4
new line.L_1378 lineCode=uglv_240al_xlpe/nyl/pvc_ug_4w_bundled bus1=B1909 bus2=B1749 length=0.0326248189456 units=km phases=4
new line.L_1387 lineCode=uglv_240al_xlpe/nyl/pvc_ug_4w_bundled bus1=B357 bus2=B2512 length=0.0556718371363 units=km phases=4
new line.L_1416 lineCode=ugsc_16cu_xlpe/nyl/pvc_ug_4w_bundled bus1=B649 bus2=B2187 length=0.0319802800798 units=km phases=4
new line.L_1461 lineCode=ugsc_16cu_xlpe/nyl/pvc_ug_4w_bundled bus1=B1143 bus2=B1582 length=0.0228532684276 units=km phases=4
new line.L_1472 lineCode=ugsc_16cu_xlpe/nyl/pvc_ug_4w_bundled bus1=B50 bus2=B2614 length=0.00860395600985 units=km phases=4
new line.L_1483 lineCode=ugsc_16cu_xlpe/nyl/pvc_ug_4w_bundled bus1=B1593 bus2=B2203 length=0.00801507320666 units=km phases=4
new line.L_1498 lineCode=ugsc_16cu_xlpe/nyl/pvc_ug_4w_bundled bus1=B92 bus2=B3022 length=0.0109210659808 units=km phases=4
new line.L_1509 lineCode=ugsc_16cu_xlpe/nyl/pvc_ug_4w_bundled bus1=B2279 bus2=B1143 length=0.0113029537343 units=km phases=4
new line.L_1514 lineCode=ugsc_16cu_xlpe/nyl/pvc_ug_4w_bundled bus1=B2932 bus2=B968 length=0.0555186687079 units=km phases=4
new line.L_1528 lineCode=ugsc_16cu_xlpe/nyl/pvc_ug_4w_bundled bus1=B1047 bus2=B968 length=0.0421719061661 units=km phases=4
new line.L_1574 lineCode=ugsc_16cu_xlpe/nyl/pvc_ug_4w_bundled bus1=B1428 bus2=B2503 length=0.00806422315407 units=km phases=4
new line.L_1580 lineCode=ugsc_16cu_xlpe/nyl/pvc_ug_4w_bundled bus1=B1314 bus2=B1518 length=0.0358630807671 units=km phases=4
new line.L_1645 lineCode=ugsc_16cu_xlpe/nyl/pvc_ug_4w_bundled bus1=B112 bus2=B904 length=0.0107721436734 units=km phases=4
new line.L_1725 lineCode=ugsc_16cu_xlpe/nyl/pvc_ug_4w_bundled bus1=B197 bus2=B19 length=0.0846204879212 units=km phases=4
new line.L_1729 lineCode=ugsc_16cu_xlpe/nyl/pvc_ug_4w_bundled bus1=B2508 bus2=B1909 length=0.00874555824422 units=km phases=4
new line.L_1732 lineCode=ugsc_16cu_xlpe/nyl/pvc_ug_4w_bundled bus1=B1429 bus2=B112 length=0.00872218287269 units=km phases=4
new line.L_1746 lineCode=ugsc_16cu_xlpe/nyl/pvc_ug_4w_bundled bus1=B1000 bus2=B1749 length=0.00835069542256 units=km phases=4
new line.L_1758 lineCode=ugsc_16cu_xlpe/nyl/pvc_ug_4w_bundled bus1=B3089 bus2=B2556 length=0.0181634523659 units=km phases=4
new line.L_1764 lineCode=uglv_240al_xlpe/nyl/pvc_ug_4w_bundled bus1=B2312 bus2=B1081 length=0.0384746746364 units=km phases=4
new line.L_1837 lineCode=ughv_400al_triplex_ug_4w_bundled bus1=B2663 bus2=B1827 length=0.000255748683551 units=km phases=4
new line.L_1845 lineCode=ugsc_16cu_xlpe/nyl/pvc_ug_4w_bundled bus1=B1979 bus2=B1853 length=0.00973147737120 units=km phases=4
new line.L_1868 lineCode=ugsc_16cu_xlpe/nyl/pvc_ug_4w_bundled bus1=B861 bus2=B340 length=0.0188952452688 units=km phases=4
new line.L_1869 lineCode=ughv_400al_triplex_ug_4w_bundled bus1=B1480 bus2=B249 length=0.000800000000000 units=km phases=4
new line.L_1908 lineCode=ugsc_16cu_xlpe/nyl/pvc_ug_4w_bundled bus1=B223 bus2=B1904 length=0.00783858929820 units=km phases=4
new line.L_1936 lineCode=ugsc_16cu_xlpe/nyl/pvc_ug_4w_bundled bus1=B1043 bus2=B791 length=0.00475907388569 units=km phases=4
new line.L_1938 lineCode=ugsc_16cu_xlpe/nyl/pvc_ug_4w_bundled bus1=B2231 bus2=B761 length=0.00567719717511 units=km phases=4
new line.L_1962 lineCode=ugsc_16cu_xlpe/nyl/pvc_ug_4w_bundled bus1=B258 bus2=B2921 length=0.0109797565565 units=km phases=4
new line.L_1998 lineCode=ughv_400al_triplex_ug_4w_bundled bus1=B576 bus2=B2704 length=6.69200662550e-05 units=km phases=4
new line.L_2013 lineCode=ugsc_16cu_xlpe/nyl/pvc_ug_4w_bundled bus1=B1904 bus2=B1702 length=0.00559968491797 units=km phases=4
new line.L_2014 lineCode=uglv_240al_xlpe/nyl/pvc_ug_4w_bundled bus1=B1068 bus2=B2847 length=0.0228589692001 units=km phases=4
new line.L_2066 lineCode=ugsc_16cu_xlpe/nyl/pvc_ug_4w_bundled bus1=B3261 bus2=B952 length=0.00992603191752 units=km phases=4
new line.L_2093 lineCode=ugsc_16cu_xlpe/nyl/pvc_ug_4w_bundled bus1=B2897 bus2=B1909 length=0.0147491788396 units=km phases=4
new line.L_2100 lineCode=ugsc_16cu_xlpe/nyl/pvc_ug_4w_bundled bus1=B2016 bus2=B3211 length=0.00825481468746 units=km phases=4
new line.L_2101 lineCode=ugsc_16cu_xlpe/nyl/pvc_ug_4w_bundled bus1=B394 bus2=B3104 length=0.00678660336853 units=km phases=4
new line.L_2102 lineCode=ugsc_16cu_xlpe/nyl/pvc_ug_4w_bundled bus1=B1191 bus2=B1143 length=0.0100949537682 units=km phases=4
new line.L_2105 lineCode=ugsc_16cu_xlpe/nyl/pvc_ug_4w_bundled bus1=B2584 bus2=B1153 length=0.0314604962542 units=km phases=4
new line.L_2141 lineCode=ugsc_16cu_xlpe/nyl/pvc_ug_4w_bundled bus1=B552 bus2=B595 length=0.0279175748498 units=km phases=4
new line.L_2152 lineCode=ugsc_16cu_xlpe/nyl/pvc_ug_4w_bundled bus1=B292 bus2=B1004 length=0.00984631588496 units=km phases=4
new line.L_2196 lineCode=ugsc_16cu_xlpe/nyl/pvc_ug_4w_bundled bus1=B2495 bus2=B340 length=0.0184906040171 units=km phases=4
new line.L_2213 lineCode=ugsc_16cu_xlpe/nyl/pvc_ug_4w_bundled bus1=B36 bus2=B2054 length=0.0996066645936 units=km phases=4
new line.L_2239 lineCode=ugsc_16cu_xlpe/nyl/pvc_ug_4w_bundled bus1=B2499 bus2=B1874 length=0.0118743787590 units=km phases=4
new line.L_2244 lineCode=ugsc_16cu_xlpe/nyl/pvc_ug_4w_bundled bus1=B1213 bus2=B112 length=0.00900397106894 units=km phases=4
new line.L_2277 lineCode=uglv_240al_xlpe/nyl/pvc_ug_4w_bundled bus1=B2655 bus2=B357 length=0.0149555527256 units=km phases=4
new line.L_2353 lineCode=ugsc_16cu_xlpe/nyl/pvc_ug_4w_bundled bus1=B420 bus2=B1904 length=0.00643481241852 units=km phases=4
new line.L_2359 lineCode=uglv_240al_xlpe/nyl/pvc_ug_4w_bundled bus1=B2073 bus2=B1068 length=0.0109085535921 units=km phases=4
new line.L_2429 lineCode=ugsc_16cu_xlpe/nyl/pvc_ug_4w_bundled bus1=B935 bus2=B13 length=0.0215501806719 units=km phases=4
new line.L_2431 lineCode=ugsc_16cu_xlpe/nyl/pvc_ug_4w_bundled bus1=B2659 bus2=B1068 length=0.0136519526778 units=km phases=4
new line.L_2470 lineCode=uglv_240al_xlpe/nyl/pvc_ug_4w_bundled bus1=B2614 bus2=B670 length=0.0232064962964 units=km phases=4
new line.L_2476 lineCode=uglv_240al_xlpe/nyl/pvc_ug_4w_bundled bus1=B1004 bus2=B3266 length=0.0499061571157 units=km phases=4
new line.L_2521 lineCode=ugsc_16cu_xlpe/nyl/pvc_ug_4w_bundled bus1=B2162 bus2=B2312 length=0.0103886662697 units=km phases=4
new line.L_2552 lineCode=ugsc_16cu_xlpe/nyl/pvc_ug_4w_bundled bus1=B1417 bus2=B299 length=0.0326643740645 units=km phases=4
new line.L_2560 lineCode=ugsc_16cu_xlpe/nyl/pvc_ug_4w_bundled bus1=B582 bus2=B2426 length=0.00802707105581 units=km phases=4
new line.L_2581 lineCode=ugsc_16cu_xlpe/nyl/pvc_ug_4w_bundled bus1=B2871 bus2=B2867 length=0.00536014197986 units=km phases=4
new line.L_2582 lineCode=ugsc_16cu_xlpe/nyl/pvc_ug_4w_bundled bus1=B2614 bus2=B3289 length=0.00554990854850 units=km phases=4
new line.L_2613 lineCode=uglv_240al_xlpe/nyl/pvc_ug_4w_bundled bus1=B649 bus2=B1314 length=0.0238886924495 units=km phases=4
new line.L_2639 lineCode=uglv_240al_xlpe/nyl/pvc_ug_4w_bundled bus1=B265 bus2=B2614 length=0.0284660028987 units=km phases=4
new line.L_2649 lineCode=uglv_240al_xlpe/nyl/pvc_ug_4w_bundled bus1=B2871 bus2=B1233 length=0.0308324509121 units=km phases=4
new line.L_2673 lineCode=ughv_400al_triplex_ug_4w_bundled bus1=B1876 bus2=B1580 length=6.69200662550e-05 units=km phases=4
new line.L_2687 lineCode=ugsc_16cu_xlpe/nyl/pvc_ug_4w_bundled bus1=B1657 bus2=B1010 length=0.00711586102189 units=km phases=4
new line.L_2739 lineCode=ugsc_16cu_xlpe/nyl/pvc_ug_4w_bundled bus1=B583 bus2=B3022 length=0.00982398598171 units=km phases=4
new line.L_2745 lineCode=ugsc_16cu_xlpe/nyl/pvc_ug_4w_bundled bus1=B2677 bus2=B2562 length=0.0223366846560 units=km phases=4
new line.L_2775 lineCode=uglv_240al_xlpe/nyl/pvc_ug_4w_bundled bus1=B2426 bus2=B3211 length=0.0292279025490 units=km phases=4
new line.L_2777 lineCode=ugsc_16cu_xlpe/nyl/pvc_ug_4w_bundled bus1=B1853 bus2=B2554 length=0.00636368147333 units=km phases=4
new line.L_2785 lineCode=ugsc_16cu_xlpe/nyl/pvc_ug_4w_bundled bus1=B2633 bus2=B1081 length=0.0248879017722 units=km phases=4
new line.L_2800 lineCode=ugsc_16cu_xlpe/nyl/pvc_ug_4w_bundled bus1=B1314 bus2=B2639 length=0.0252640031276 units=km phases=4
new line.L_2824 lineCode=ugsc_16cu_xlpe/nyl/pvc_ug_4w_bundled bus1=B240 bus2=B1730 length=0.0328421040252 units=km phases=4
new line.L_2846 lineCode=ugsc_16cu_xlpe/nyl/pvc_ug_4w_bundled bus1=B3318 bus2=B1621 length=0.00913312976756 units=km phases=4
new line.L_2849 lineCode=uglv_240al_xlpe/nyl/pvc_ug_4w_bundled bus1=B1651 bus2=B2871 length=0.0329962325174 units=km phases=4
new line.L_2853 lineCode=ughv_400al_triplex_ug_4w_bundled bus1=B345 bus2=B2847 length=0.000800000000000 units=km phases=4
new line.L_2856 lineCode=ugsc_16cu_xlpe/nyl/pvc_ug_4w_bundled bus1=B992 bus2=B1621 length=0.00784397708087 units=km phases=4
new line.L_2860 lineCode=uglv_240al_xlpe/nyl/pvc_ug_4w_bundled bus1=B2988 bus2=B2556 length=0.0142200475514 units=km phases=4
new line.L_2867 lineCode=uglv_240al_xlpe/nyl/pvc_ug_4w_bundled bus1=B2426 bus2=B1651 length=0.0321469975364 units=km phases=4
new line.L_2870 lineCode=ugsc_16cu_xlpe/nyl/pvc_ug_4w_bundled bus1=B1068 bus2=B267 length=0.00912876235928 units=km phases=4
new line.L_2887 lineCode=ugsc_16cu_xlpe/nyl/pvc_ug_4w_bundled bus1=B2394 bus2=B927 length=0.00836929112258 units=km phases=4
new line.L_2908 lineCode=ugsc_16cu_xlpe/nyl/pvc_ug_4w_bundled bus1=B2801 bus2=B1087 length=0.00792635399855 units=km phases=4
new line.L_2911 lineCode=ugsc_16cu_xlpe/nyl/pvc_ug_4w_bundled bus1=B2816 bus2=B3023 length=0.00561025119617 units=km phases=4
new line.L_2929 lineCode=uglv_240al_xlpe/nyl/pvc_ug_4w_bundled bus1=B2203 bus2=B1087 length=0.0293731736331 units=km phases=4
new line.L_2934 lineCode=ugsc_16cu_xlpe/nyl/pvc_ug_4w_bundled bus1=B1651 bus2=B1454 length=0.0199600785785 units=km phases=4
new line.L_2945 lineCode=ugsc_16cu_xlpe/nyl/pvc_ug_4w_bundled bus1=B2754 bus2=B2713 length=0.0377836456113 units=km phases=4
new line.L_2967 lineCode=ugsc_16cu_xlpe/nyl/pvc_ug_4w_bundled bus1=B2950 bus2=B1661 length=0.00990638683392 units=km phases=4
new line.L_2989 lineCode=ugsc_16cu_xlpe/nyl/pvc_ug_4w_bundled bus1=B1874 bus2=B1010 length=0.0197324338082 units=km phases=4
new line.L_3021 lineCode=ugsc_16cu_xlpe/nyl/pvc_ug_4w_bundled bus1=B1303 bus2=B2677 length=0.00855198054473 units=km phases=4
new line.L_3063 lineCode=ugsc_16cu_xlpe/nyl/pvc_ug_4w_bundled bus1=B2054 bus2=B19 length=0.116004894138 units=km phases=4
new line.L_3067 lineCode=ugsc_16cu_xlpe/nyl/pvc_ug_4w_bundled bus1=B972 bus2=B1751 length=0.00989961970922 units=km phases=4
new line.L_3082 lineCode=ugsc_16cu_xlpe/nyl/pvc_ug_4w_bundled bus1=B2847 bus2=B2754 length=0.0207713632255 units=km phases=4
new line.L_3094 lineCode=ugsc_16cu_xlpe/nyl/pvc_ug_4w_bundled bus1=B1314 bus2=B2974 length=0.00565491068808 units=km phases=4
new line.L_3108 lineCode=uglv_240al_xlpe/nyl/pvc_ug_4w_bundled bus1=B1874 bus2=B2426 length=0.0610124343587 units=km phases=4
new line.L_3136 lineCode=ugsc_16cu_xlpe/nyl/pvc_ug_4w_bundled bus1=B1661 bus2=B1161 length=0.0193673022174 units=km phases=4
new line.L_3146 lineCode=ugsc_16cu_xlpe/nyl/pvc_ug_4w_bundled bus1=B615 bus2=B3280 length=0.00841421102115 units=km phases=4
new line.L_3154 lineCode=ugsc_16cu_xlpe/nyl/pvc_ug_4w_bundled bus1=B190 bus2=B1641 length=0.143096211026 units=km phases=4
new line.L_3208 lineCode=ugsc_16cu_xlpe/nyl/pvc_ug_4w_bundled bus1=B1205 bus2=B2426 length=0.00903575349554 units=km phases=4
new line.L_3245 lineCode=uglv_240al_xlpe/nyl/pvc_ug_4w_bundled bus1=B3280 bus2=B2677 length=0.0312307124603 units=km phases=4
new line.L_3247 lineCode=uglv_240al_xlpe/nyl/pvc_ug_4w_bundled bus1=B3122 bus2=B649 length=0.0750505114298 units=km phases=4
new line.L_3261 lineCode=ugsc_16cu_xlpe/nyl/pvc_ug_4w_bundled bus1=B3140 bus2=B13 length=0.00831840690452 units=km phases=4
new line.L_3267 lineCode=ugsc_16cu_xlpe/nyl/pvc_ug_4w_bundled bus1=B893 bus2=B1417 length=0.0233978612674 units=km phases=4
new line.L_3269 lineCode=ugsc_16cu_xlpe/nyl/pvc_ug_4w_bundled bus1=B13 bus2=B1621 length=0.0181439402840 units=km phases=4
new line.L_3271 lineCode=uglv_240al_xlpe/nyl/pvc_ug_4w_bundled bus1=B3310 bus2=B1143 length=0.0619046868081 units=km phases=4
new line.L_3279 lineCode=ugsc_16cu_xlpe/nyl/pvc_ug_4w_bundled bus1=B1775 bus2=B3211 length=0.00937120850682 units=km phases=4
new line.L_3284 lineCode=ugsc_16cu_xlpe/nyl/pvc_ug_4w_bundled bus1=B1424 bus2=B2921 length=0.00390255400068 units=km phases=4
new line.L_3294 lineCode=ugsc_16cu_xlpe/nyl/pvc_ug_4w_bundled bus1=B927 bus2=B594 length=0.00534376290186 units=km phases=4
new line.L_3326 lineCode=ugsc_16cu_xlpe/nyl/pvc_ug_4w_bundled bus1=B2637 bus2=B1081 length=0.0103084803517 units=km phases=4
new line.L_3371 lineCode=ugsc_16cu_xlpe/nyl/pvc_ug_4w_bundled bus1=B20 bus2=B1853 length=0.00941232882545 units=km phases=4
new line.L_3429 lineCode=ugsc_16cu_xlpe/nyl/pvc_ug_4w_bundled bus1=B1771 bus2=B340 length=0.0245323941015 units=km phases=4
new line.L_3430 lineCode=uglv_240al_xlpe/nyl/pvc_ug_4w_bundled bus1=B1314 bus2=B2231 length=0.0678268076941 units=km phases=4
new line.L_3503 lineCode=ugsc_16cu_xlpe/nyl/pvc_ug_4w_bundled bus1=B120 bus2=B249 length=0.0178622400893 units=km phases=4
new line.L_3532 lineCode=ugsc_16cu_xlpe/nyl/pvc_ug_4w_bundled bus1=B1954 bus2=B2231 length=0.00855713950476 units=km phases=4
new line.L_3540 lineCode=ugsc_16cu_xlpe/nyl/pvc_ug_4w_bundled bus1=B240 bus2=B3184 length=0.0131018354805 units=km phases=4
new line.L_3596 lineCode=ugsc_16cu_xlpe/nyl/pvc_ug_4w_bundled bus1=B2426 bus2=B750 length=0.0166036333772 units=km phases=4
new line.L_3633 lineCode=ughv_400al_triplex_ug_4w_bundled bus1=B1827 bus2=B3259 length=0.000320869875155 units=km phases=4
new line.L_3667 lineCode=ugsc_16cu_xlpe/nyl/pvc_ug_4w_bundled bus1=B1857 bus2=B927 length=0.00914466254823 units=km phases=4
new line.L_3690 lineCode=ugsc_16cu_xlpe/nyl/pvc_ug_4w_bundled bus1=B1271 bus2=B1314 length=0.0132655170533 units=km phases=4
new line.L_3709 lineCode=ugsc_16cu_xlpe/nyl/pvc_ug_4w_bundled bus1=B3104 bus2=B1068 length=0.0745134844222 units=km phases=4
new line.L_3717 lineCode=uglv_240al_xlpe/nyl/pvc_ug_4w_bundled bus1=B1087 bus2=B2816 length=0.0283779576400 units=km phases=4
new line.L_3734 lineCode=ugsc_16cu_xlpe/nyl/pvc_ug_4w_bundled bus1=B3262 bus2=B1087 length=0.00792056983805 units=km phases=4
new line.L_3737 lineCode=ugsc_16cu_xlpe/nyl/pvc_ug_4w_bundled bus1=B2797 bus2=B1749 length=0.00883829950768 units=km phases=4
new line.L_3769 lineCode=ughv_400al_triplex_ug_4w_bundled bus1=B841 bus2=B2503 length=0.000800000000000 units=km phases=4
new line.L_3795 lineCode=ugsc_16cu_xlpe/nyl/pvc_ug_4w_bundled bus1=B2816 bus2=B2261 length=0.0173496810818 units=km phases=4
new line.L_3796 lineCode=ugsc_16cu_xlpe/nyl/pvc_ug_4w_bundled bus1=B3266 bus2=B552 length=0.0388685151700 units=km phases=4
new line.L_3849 lineCode=ugsc_16cu_xlpe/nyl/pvc_ug_4w_bundled bus1=B2233 bus2=B649 length=0.0120032707031 units=km phases=4
new line.L_3875 lineCode=ugsc_16cu_xlpe/nyl/pvc_ug_4w_bundled bus1=B1730 bus2=B1295 length=0.0274784435439 units=km phases=4
new line.L_3896 lineCode=ugsc_16cu_xlpe/nyl/pvc_ug_4w_bundled bus1=B1348 bus2=B2871 length=0.00884903160602 units=km phases=4
new line.L_3996 lineCode=ugsc_16cu_xlpe/nyl/pvc_ug_4w_bundled bus1=B823 bus2=B357 length=0.156729540072 units=km phases=4
new line.L_4026 lineCode=uglv_240al_xlpe/nyl/pvc_ug_4w_bundled bus1=B1004 bus2=B340 length=0.0436627691794 units=km phases=4
new line.L_4033 lineCode=ughv_400al_triplex_ug_4w_bundled bus1=B1827 bus2=B839 length=0.000206301915579 units=km phases=4
new line.L_4050 lineCode=ugsc_16cu_xlpe/nyl/pvc_ug_4w_bundled bus1=B165 bus2=B2614 length=0.00795185932558 units=km phases=4
new line.L_4061 lineCode=uglv_240al_xlpe/nyl/pvc_ug_4w_bundled bus1=B3211 bus2=B1909 length=0.0336065402516 units=km phases=4
new line.L_4079 lineCode=ugsc_16cu_xlpe/nyl/pvc_ug_4w_bundled bus1=B1417 bus2=B3031 length=0.0173556491226 units=km phases=4
new line.L_4085 lineCode=uglv_240al_xlpe/nyl/pvc_ug_4w_bundled bus1=B649 bus2=B1853 length=0.0535851671245 units=km phases=4
new line.L_4086 lineCode=ugsc_16cu_xlpe/nyl/pvc_ug_4w_bundled bus1=B529 bus2=B3184 length=0.0109127682957 units=km phases=4
new line.L_4101 lineCode=ugsc_16cu_xlpe/nyl/pvc_ug_4w_bundled bus1=B2908 bus2=B649 length=0.00603923791998 units=km phases=4
new line.L_4109 lineCode=uglv_240al_xlpe/nyl/pvc_ug_4w_bundled bus1=B240 bus2=B249 length=0.0201275865194 units=km phases=4
new line.L_4122 lineCode=uglv_240al_xlpe/nyl/pvc_ug_4w_bundled bus1=B340 bus2=B2988 length=0.0143038395010 units=km phases=4
new line.L_4147 lineCode=ugsc_16cu_xlpe/nyl/pvc_ug_4w_bundled bus1=B2816 bus2=B1392 length=0.0250598921798 units=km phases=4
new line.L_4156 lineCode=ugsc_16cu_xlpe/nyl/pvc_ug_4w_bundled bus1=B1233 bus2=B3022 length=0.0173744065908 units=km phases=4
new line.L_4162 lineCode=ugsc_16cu_xlpe/nyl/pvc_ug_4w_bundled bus1=B3121 bus2=B968 length=0.0263121877689 units=km phases=4
new line.L_4198 lineCode=ugsc_16cu_xlpe/nyl/pvc_ug_4w_bundled bus1=B3266 bus2=B3257 length=0.0553967567098 units=km phases=4
new line.L_4206 lineCode=ugsc_16cu_xlpe/nyl/pvc_ug_4w_bundled bus1=B410 bus2=B2988 length=0.0178889187997 units=km phases=4
new line.L_4210 lineCode=ugsc_16cu_xlpe/nyl/pvc_ug_4w_bundled bus1=B3282 bus2=B2816 length=0.00794511158771 units=km phases=4
new line.L_4213 lineCode=ugsc_16cu_xlpe/nyl/pvc_ug_4w_bundled bus1=B3266 bus2=B3043 length=0.00812613739916 units=km phases=4
new line.L_4220 lineCode=ugsc_16cu_xlpe/nyl/pvc_ug_4w_bundled bus1=B437 bus2=B240 length=0.0111869647054 units=km phases=4
new line.L_4241 lineCode=ugsc_16cu_xlpe/nyl/pvc_ug_4w_bundled bus1=B2946 bus2=B299 length=0.00891614998131 units=km phases=4
new line.L_4298 lineCode=ugsc_16cu_xlpe/nyl/pvc_ug_4w_bundled bus1=B1373 bus2=B2312 length=0.00985843405070 units=km phases=4
new line.L_4307 lineCode=ugsc_16cu_xlpe/nyl/pvc_ug_4w_bundled bus1=B1081 bus2=B368 length=0.0246246226906 units=km phases=4
new line.L_4319 lineCode=ugsc_16cu_xlpe/nyl/pvc_ug_4w_bundled bus1=B3238 bus2=B1651 length=0.0230412783874 units=km phases=4
new line.L_4340 lineCode=ugsc_16cu_xlpe/nyl/pvc_ug_4w_bundled bus1=B3280 bus2=B927 length=0.0206482072865 units=km phases=4
new line.L_4344 lineCode=ugsc_16cu_xlpe/nyl/pvc_ug_4w_bundled bus1=B952 bus2=B2685 length=0.00561745184853 units=km phases=4
new line.L_4358 lineCode=uglv_240al_xlpe/nyl/pvc_ug_4w_bundled bus1=B1853 bus2=B1004 length=0.0354188239498 units=km phases=4
new line.L_4446 lineCode=ugsc_16cu_xlpe/nyl/pvc_ug_4w_bundled bus1=B1641 bus2=B197 length=0.0637192854005 units=km phases=4
new line.L_4491 lineCode=ughv_400al_triplex_ug_4w_bundled bus1=B1827 bus2=B2248 length=0.000542133397267 units=km phases=4
new line.L_4503 lineCode=ugsc_16cu_xlpe/nyl/pvc_ug_4w_bundled bus1=B35 bus2=B952 length=0.00977478498834 units=km phases=4
new line.L_4524 lineCode=ugsc_16cu_xlpe/nyl/pvc_ug_4w_bundled bus1=B563 bus2=B1661 length=0.0200892287008 units=km phases=4
new line.L_4547 lineCode=ugsc_16cu_xlpe/nyl/pvc_ug_4w_bundled bus1=B2000 bus2=B2988 length=0.0185096109194 units=km phases=4
new line.L_4594 lineCode=uglv_240al_xlpe/nyl/pvc_ug_4w_bundled bus1=B1233 bus2=B240 length=0.0283633977920 units=km phases=4
new line.L_4646 lineCode=ugsc_16cu_xlpe/nyl/pvc_ug_4w_bundled bus1=B965 bus2=B249 length=0.0182899993128 units=km phases=4
